/*--------------------------------*- C++ -*----------------------------------*\
  =========                 |
  \\      /  F ield         | OpenFOAM: The Open Source CFD Toolbox
   \\    /   O peration     | Website:  https://openfoam.org
    \\  /    A nd           | Version:  6
     \\/     M anipulation  |
\*---------------------------------------------------------------------------*/
FoamFile
{
    version     2.0;
    format      ascii;
    class       polyBoundaryMesh;
    location    "constant/polyMesh";
    object      boundary;
}
// * * * * * * * * * * * * * * * * * * * * * * * * * * * * * * * * * * * * * //

6
(
    inlet
    {
        type            patch;
        nFaces          225;
        startFace       1169086;
    }
    outlet
    {
        type            patch;
        nFaces          450;
        startFace       1169311;
    }
    upperWall
    {
        type            wall;
        inGroups        1(wall);
        nFaces          1364;
        startFace       1169761;
    }
    lowerWall
    {
        type            wall;
        inGroups        1(wall);
        nFaces          689;
        startFace       1171125;
    }
    lowerWallHeatFlux
    {
        type            wall;
        inGroups        1(wall);
        nFaces          900;
        startFace       1171814;
    }
    frontAndBack
    {
        type            empty;
        inGroups        1(empty);
        nFaces          1170900;
        startFace       1172714;
    }
)

// ************************************************************************* //
