/*--------------------------------*- C++ -*----------------------------------*\
| =========                 |                                                 |
| \\      /  F ield         | OpenFOAM: The Open Source CFD Toolbox           |
|  \\    /   O peration     | Version:  2.4.0                                 |
|   \\  /    A nd           | Web:      www.OpenFOAM.org                      |
|    \\/     M anipulation  |                                                 |
\*---------------------------------------------------------------------------*/
FoamFile
{
    version     2.0;
    format      ascii;
    class       volScalarField;
    location    "0";
    object      k;
}
// * * * * * * * * * * * * * * * * * * * * * * * * * * * * * * * * * * * * * //

dimensions      [0 2 -2 0 0 0 0];

internalField   uniform 0.0000237;

boundaryField
{
    inlet
    {
        type            fixedValue;
        value           uniform 0.0000237;
    }
    outlet
    {
        type            zeroGradient;
    }
    frontAndBack
    {
        type            empty;
    }
    upperWall
    {
	type            fixedValue;
        value           uniform 1e-10;
    }
   lowerWall
    {
        type            fixedValue;
        value           uniform 1e-10;
    }

 lowerWallHeatFlux
    {
        type            fixedValue;
        value           uniform 1e-10;
    }
}


// ************************************************************************* //
